Circuit: *** SPICE deck for cell alu{sch} from library Werthan_ALU

Fatal Error: No analysis request found.
