Circuit: *** SPICE deck for cell alu_sim{sch} from library Werthan_ALU

