Circuit: *** SPICE deck for cell buftri_c_1x_sim{lay} from library Werthan_ALU

Instance "m:buftri_c@0:nmos@0": Length shorter than recommended for a level 3 MOSFET.
Instance "m:buftri_c@0:nmos@0": Width narrower than recommended for a level 3 MOSFET.
Instance "m:buftri_c@0:nmos@2": Length shorter than recommended for a level 3 MOSFET.
Instance "m:buftri_c@0:nmos@3": Length shorter than recommended for a level 3 MOSFET.
Instance "m:buftri_c@0:nmos@6": Length shorter than recommended for a level 3 MOSFET.
Instance "m:buftri_c@0:nmos@6": Width narrower than recommended for a level 3 MOSFET.
Instance "m:buftri_c@0:pmos@0": Length shorter than recommended for a level 3 MOSFET.
Instance "m:buftri_c@0:pmos@2": Length shorter than recommended for a level 3 MOSFET.
Instance "m:buftri_c@0:pmos@3": Length shorter than recommended for a level 3 MOSFET.
Instance "m:buftri_c@0:pmos@5": Length shorter than recommended for a level 3 MOSFET.
Direct Newton iteration for .op point succeeded.

Date: Tue Nov 14 15:40:21 2023
Total elapsed time: 0.289 seconds.

tnom = 27
temp = 27
method = modified trap
totiter = 3130
traniter = 3107
tranpoints = 1224
accept = 1157
rejected = 67
matrix size = 11
fillins = 2
solver = Normal
Avg thread counts: 2.9/5.8/5.8/2.9
Matrix Compiler1: 726 bytes object code size  0.4/0.4/[0.3]
Matrix Compiler2: 1.05 KB object code size  0.3/0.4/[0.2]

