Circuit: *** SPICE deck for cell fulladder{lay} from library Werthan_ALU

