Circuit: *** SPICE deck for cell fulladder_sim{sch} from library Werthan_ALU

Direct Newton iteration for .op point succeeded.

Date: Mon Nov 13 00:51:54 2023
Total elapsed time: 0.239 seconds.

tnom = 27
temp = 27
method = modified trap
totiter = 2831
traniter = 2806
tranpoints = 1197
accept = 1162
rejected = 35
matrix size = 134
fillins = 0
solver = Normal
Avg thread counts: 4.2/5.8/5.9/3.1
Matrix Compiler1: 17.10 KB object code size  5.6/2.2/[1.8]
Matrix Compiler2: 17.10 KB object code size  2.1/1.9/[1.4]

