Circuit: *** SPICE deck for cell inv_1x_sim{lay} from library Werthan_ALU

Instance "m:inv_1x@0:nmos@0": Length shorter than recommended for a level 3 MOSFET.
Instance "m:inv_1x@0:pmos@0": Length shorter than recommended for a level 3 MOSFET.
Direct Newton iteration for .op point succeeded.

Date: Tue Nov 14 15:16:30 2023
Total elapsed time: 0.265 seconds.

tnom = 27
temp = 27
method = modified trap
totiter = 2094
traniter = 2082
tranpoints = 1042
accept = 1042
rejected = 0
matrix size = 5
fillins = 0
solver = Normal
Avg thread counts: 3.8/6.7/6.7/3.8
Matrix Compiler1:       8 opcodes  0.2/[0.1]/0.2
Matrix Compiler2: 335 bytes object code size  0.2/0.3/[0.1]

