Circuit: *** SPICE deck for cell mux2_c_1x_sim{lay} from library Werthan_ALU

Instance "m:mux2_c_1@0:nmos@1": Length shorter than recommended for a level 3 MOSFET.
Instance "m:mux2_c_1@0:nmos@1": Width narrower than recommended for a level 3 MOSFET.
Instance "m:mux2_c_1@0:nmos@2": Length shorter than recommended for a level 3 MOSFET.
Instance "m:mux2_c_1@0:nmos@2": Width narrower than recommended for a level 3 MOSFET.
Instance "m:mux2_c_1@0:nmos@3": Length shorter than recommended for a level 3 MOSFET.
Instance "m:mux2_c_1@0:nmos@3": Width narrower than recommended for a level 3 MOSFET.
Instance "m:mux2_c_1@0:nmos@4": Length shorter than recommended for a level 3 MOSFET.
Instance "m:mux2_c_1@0:nmos@4": Width narrower than recommended for a level 3 MOSFET.
Instance "m:mux2_c_1@0:nmos@5": Length shorter than recommended for a level 3 MOSFET.
Instance "m:mux2_c_1@0:nmos@5": Width narrower than recommended for a level 3 MOSFET.
Instance "m:mux2_c_1@0:nmos@6": Length shorter than recommended for a level 3 MOSFET.
Instance "m:mux2_c_1@0:pmos@0": Length shorter than recommended for a level 3 MOSFET.
Instance "m:mux2_c_1@0:pmos@1": Length shorter than recommended for a level 3 MOSFET.
Instance "m:mux2_c_1@0:pmos@2": Length shorter than recommended for a level 3 MOSFET.
Instance "m:mux2_c_1@0:pmos@3": Length shorter than recommended for a level 3 MOSFET.
Instance "m:mux2_c_1@0:pmos@4": Length shorter than recommended for a level 3 MOSFET.
Instance "m:mux2_c_1@0:pmos@5": Length shorter than recommended for a level 3 MOSFET.
Direct Newton iteration for .op point succeeded.

Date: Tue Nov 14 15:29:59 2023
Total elapsed time: 0.300 seconds.

tnom = 27
temp = 27
method = modified trap
totiter = 4352
traniter = 4324
tranpoints = 1381
accept = 1277
rejected = 104
matrix size = 15
fillins = 0
solver = Normal
Avg thread counts: 2.4/5.2/5.3/2.4
Matrix Compiler1: 882 bytes object code size  0.5/0.4/[0.3]
Matrix Compiler2: 1.46 KB object code size  0.4/0.6/[0.3]

