Circuit: *** SPICE deck for cell mux2_c_1x{lay} from library Werthan_ALU

