Circuit: *** SPICE deck for cell xor2_1x_sim{sch} from library Werthan_ALU

WARNING: Specified period is not longer than the sum of Trise, Tfall, and Ton for va.  Increasing period to 4.2e-08
Instance "m:xor2_1x@0:nmos@0": Length shorter than recommended for a level 3 MOSFET.
Instance "m:xor2_1x@0:nmos@1": Length shorter than recommended for a level 3 MOSFET.
Instance "m:xor2_1x@0:nmos@2": Length shorter than recommended for a level 3 MOSFET.
Instance "m:xor2_1x@0:nmos@3": Length shorter than recommended for a level 3 MOSFET.
Instance "m:xor2_1x@0:nmos@4": Length shorter than recommended for a level 3 MOSFET.
Instance "m:xor2_1x@0:nmos@4": Width narrower than recommended for a level 3 MOSFET.
Instance "m:xor2_1x@0:nmos@5": Length shorter than recommended for a level 3 MOSFET.
Instance "m:xor2_1x@0:nmos@5": Width narrower than recommended for a level 3 MOSFET.
Instance "m:xor2_1x@0:pmos@0": Length shorter than recommended for a level 3 MOSFET.
Instance "m:xor2_1x@0:pmos@1": Length shorter than recommended for a level 3 MOSFET.
Instance "m:xor2_1x@0:pmos@2": Length shorter than recommended for a level 3 MOSFET.
Instance "m:xor2_1x@0:pmos@3": Length shorter than recommended for a level 3 MOSFET.
Instance "m:xor2_1x@0:pmos@4": Length shorter than recommended for a level 3 MOSFET.
Instance "m:xor2_1x@0:pmos@5": Length shorter than recommended for a level 3 MOSFET.
Direct Newton iteration for .op point succeeded.

Date: Wed Nov 15 12:44:00 2023
Total elapsed time: 0.318 seconds.

tnom = 27
temp = 27
method = modified trap
totiter = 2404
traniter = 2370
tranpoints = 1058
accept = 1051
rejected = 7
matrix size = 13
fillins = 2
solver = Normal
Avg thread counts: 3.5/6.6/6.6/3.5
Matrix Compiler1:      54 opcodes  0.5/[0.4]/0.6
Matrix Compiler2: 1.36 KB object code size  0.4/0.6/[0.3]

