Circuit: *** SPICE deck for cell inverter_sim{sch} from library Werthan_inverter

Ignoring BSIM parameter XL
Ignoring BSIM parameter XW
Ignoring BSIM parameter XL
Ignoring BSIM parameter XW
Warning: Pd = 0 is less than W.
Warning: Ps = 0 is less than W.
Warning: Pd = 0 is less than W.
Warning: Ps = 0 is less than W.
Warning: Pd = 0 is less than W.
Warning: Ps = 0 is less than W.
Warning: Pd = 0 is less than W.
Warning: Ps = 0 is less than W.

Date: Wed Oct 18 19:45:29 2023
Total elapsed time: 0.198 seconds.

tnom = 27
temp = 27
method = trap
totiter = 10013
traniter = 0
tranpoints = 0
accept = 0
rejected = 0
matrix size = 6
fillins = 0
solver = Normal
Avg thread counts: 1.6/0.0/2.2/1.6
Matrix Compiler1:      10 opcodes  0.1/[0.1]/0.1
Matrix Compiler2: 448 bytes object code size  0.1/0.2/[0.1]

