Circuit: *** SPICE deck for cell inverter_sim_loaded{sch} from library Werthan_inverter

Ignoring BSIM parameter XL
Ignoring BSIM parameter XW
Ignoring BSIM parameter XL
Ignoring BSIM parameter XW
Warning: Pd = 0 is less than W.
Warning: Ps = 0 is less than W.
Warning: Pd = 0 is less than W.
Warning: Ps = 0 is less than W.
Warning: Pd = 0 is less than W.
Warning: Ps = 0 is less than W.
Warning: Pd = 0 is less than W.
Warning: Ps = 0 is less than W.
Direct Newton iteration for .op point succeeded.
.step x=1e-15
.step x=1e-14
.step x=1e-13

Date: Wed Oct 18 21:48:21 2023
Total elapsed time: 0.332 seconds.

tnom = 27
temp = 27
method = modified trap
totiter = 739
traniter = 726
tranpoints = 346
accept = 318
rejected = 28
matrix size = 6
fillins = 0
solver = Normal
Avg thread counts: 8.6/13.0/13.1/8.6
Matrix Compiler1:      10 opcodes  0.1/[0.1]/0.1
Matrix Compiler2: 448 bytes object code size  0.1/0.2/[0.1]

