Circuit: *** SPICE deck for cell NAND_sim{lay} from library Werthan_Full_Adder

Ignoring BSIM parameter XL
Ignoring BSIM parameter XW
Ignoring BSIM parameter XL
Ignoring BSIM parameter XW
WARNING: Specified period is not longer than the sum of Trise, Tfall, and Ton for vin.  Increasing period to 4.2e-08
Direct Newton iteration for .op point succeeded.

Date: Fri Oct 20 11:49:57 2023
Total elapsed time: 0.202 seconds.

tnom = 27
temp = 27
method = modified trap
totiter = 2116
traniter = 2108
tranpoints = 1054
accept = 1052
rejected = 2
matrix size = 6
fillins = 0
solver = Normal
Avg thread counts: 3.8/6.6/6.6/3.8
Matrix Compiler1:      12 opcodes  0.2/[0.1]/0.2
Matrix Compiler2: 482 bytes object code size  0.2/0.2/[0.1]

