Circuit: *** SPICE deck for cell R_Divider_sim{lay} from library Werthan_R_Divider

Direct Newton iteration for .op point succeeded.

Date: Thu Sep 28 14:40:36 2023
Total elapsed time: 0.136 seconds.

tnom = 27
temp = 27
method = trap
totiter = 3
traniter = 0
tranpoints = 0
accept = 0
rejected = 0
matrix size = 4
fillins = 0
solver = Normal
Avg thread counts: 16.0/0.0/16.0/16.0
Matrix Compiler1: 118 bytes object code size
Matrix Compiler2: 248 bytes object code size
