Circuit: *** SPICE deck for cell NAND_sim{sch} from library Werthan_full_adder

Ignoring BSIM parameter XL
Ignoring BSIM parameter XW
Ignoring BSIM parameter XL
Ignoring BSIM parameter XW
WARNING: Specified period is not longer than the sum of Trise, Tfall, and Ton for vin.  Increasing period to 4.2e-08
Warning: Pd = 0 is less than W.
Warning: Ps = 0 is less than W.
Warning: Pd = 0 is less than W.
Warning: Ps = 0 is less than W.
Direct Newton iteration for .op point succeeded.

Date: Fri Oct 27 11:42:03 2023
Total elapsed time: 0.186 seconds.

tnom = 27
temp = 27
method = modified trap
totiter = 2168
traniter = 2157
tranpoints = 1054
accept = 1052
rejected = 2
matrix size = 6
fillins = 0
solver = Normal
Avg thread counts: 3.7/6.6/6.6/3.7
Matrix Compiler1:      12 opcodes  0.3/[0.2]/0.2
Matrix Compiler2: 482 bytes object code size  0.2/0.3/[0.2]

