Circuit: *** SPICE deck for cell NOT_gate{lay} from library Werthan_Ring_Oscillator

