Circuit: *** SPICE deck for cell NOT_sim_switching_point{sch} from library Werthan_full_adder

Ignoring BSIM parameter XL
Ignoring BSIM parameter XW
Ignoring BSIM parameter XL
Ignoring BSIM parameter XW
WARNING: Specified period is not longer than the sum of Trise, Tfall, and Ton for vin.  Increasing period to 4.2e-08
Warning: Pd = 0 is less than W.
Warning: Ps = 0 is less than W.
Warning: Pd = 0 is less than W.
Warning: Ps = 0 is less than W.
Direct Newton iteration for .op point succeeded.

Date: Sat Nov 11 10:41:22 2023
Total elapsed time: 0.253 seconds.

tnom = 27
temp = 27
method = modified trap
totiter = 2149
traniter = 2137
tranpoints = 1054
accept = 1052
rejected = 2
matrix size = 5
fillins = 0
solver = Normal
Avg thread counts: 3.8/6.6/6.6/3.8
Matrix Compiler1:       8 opcodes  0.2/[0.1]/0.2
Matrix Compiler2: 335 bytes object code size  0.2/0.2/[0.1]

