Circuit: *** SPICE deck for cell charge_pump_3_stage{sch} from library Werthan_DC_to_DC

