Circuit: *** SPICE deck for cell DC_sim{sch} from library Lab06

WARNING: Less than two connections to node en.  This node is used by ven.
Direct Newton iteration failed to find .op point.  (Use ".option noopiter" to skip.)
Starting Gmin stepping
Gmin = 10
Gmin = 1.07374
Gmin = 0.115292
Gmin = 0.0123794
Gmin = 0.00132923
Gmin = 0.000142725
Gmin = 1.5325e-05
Gmin = 1.6455e-06
Gmin = 1.76685e-07
Gmin = 1.89714e-08
Gmin = 2.03704e-09
Gmin = 2.18725e-10
Gmin = 2.34854e-11
Gmin = 2.52173e-12
Gmin = 2.70769e-13
Gmin = 0
Gmin stepping succeeded in finding the operating point.

Heightened Def Con from 199.925 to 199.925

Date: Sat Nov 11 19:12:07 2023
Total elapsed time: 2.960 seconds.

tnom = 27
temp = 27
method = modified trap
totiter = 140976
traniter = 140451
tranpoints = 39797
accept = 28126
rejected = 11672
matrix size = 60
fillins = 3
solver = Normal
Avg thread counts: 4.0/3.1/1.2/1.0
Matrix Compiler1: 6.98 KB object code size  2.1/1.4/[0.9]
Matrix Compiler2: 6.39 KB object code size  1.5/1.1/[0.9]

