Circuit: *** SPICE deck for cell inv_1x{sch} from library Lab06

