Circuit: *** SPICE deck for cell nand2_1x{sch} from library Lab06

