Circuit: *** SPICE deck for cell regulator_sim{sch} from library Werthan_DC_to_DC

Direct Newton iteration for .op point succeeded.

Date: Sat Nov 11 19:23:41 2023
Total elapsed time: 0.662 seconds.

tnom = 27
temp = 27
method = modified trap
totiter = 39127
traniter = 39103
tranpoints = 11061
accept = 7766
rejected = 3295
matrix size = 36
fillins = 0
solver = Normal
Avg thread counts: 2.1/1.5/1.6/1.2
Matrix Compiler1: 4.21 KB object code size  1.3/1.0/[0.7]
Matrix Compiler2: 4.01 KB object code size  0.9/0.9/[0.5]

