Circuit: *** SPICE deck for cell ring_oscillator{sch} from library Werthan_DC_to_DC

WARNING: Node NET@157 is floating.
WARNING: Node IN is floating.
WARNING: Node NET@170 is floating.

Direct Newton iteration for .op point succeeded.

Date: Sat Nov 11 18:22:44 2023
Total elapsed time: 0.474 seconds.

tnom = 27
temp = 27
method = modified trap
totiter = 9513
traniter = 9504
tranpoints = 2571
accept = 2112
rejected = 459
matrix size = 88
fillins = 8
solver = Normal
Avg thread counts: 2.5/3.8/3.4/1.6
Matrix Compiler1: 12.18 KB object code size  3.2/2.6/[1.6]
Matrix Compiler2: 10.59 KB object code size  1.3/2.1/[1.0]

