Circuit: *** SPICE deck for cell ring_oscillator_sim{sch} from library Werthan_DC_to_DC

Direct Newton iteration for .op point succeeded.

Date: Sat Nov 11 19:19:47 2023
Total elapsed time: 0.428 seconds.

tnom = 27
temp = 27
method = modified trap
totiter = 9625
traniter = 9620
tranpoints = 2611
accept = 2149
rejected = 462
matrix size = 58
fillins = 6
solver = Normal
Avg thread counts: 4.3/3.3/3.4/1.6
Matrix Compiler1: 7.79 KB object code size  2.0/1.6/[1.0]
Matrix Compiler2: 6.95 KB object code size  1.0/1.1/[0.8]

