Circuit: *** SPICE deck for cell Vsph_test_sim{sch} from library HW7Q1

Direct Newton iteration for .op point succeeded.

Date: Mon Nov  6 19:40:12 2023
Total elapsed time: 0.210 seconds.

tnom = 27
temp = 27
method = modified trap
totiter = 3362
traniter = 3355
tranpoints = 1379
accept = 1279
rejected = 100
matrix size = 31
fillins = 0
solver = Normal
Avg thread counts: 3.4/5.3/5.4/2.8
Matrix Compiler1: 3.69 KB object code size  1.4/1.0/[0.8]
Matrix Compiler2: 3.76 KB object code size  0.8/0.9/[0.7]

