Circuit: *** SPICE deck for cell Vsph_test{sch} from library HW7Q1

WARNING: Node INPUT is floating.
ERROR: Node IN is floating and connected to current source IN

Direct Newton iteration for .op point succeeded.

Date: Sun Nov  5 19:36:02 2023
Total elapsed time: 0.293 seconds.

tnom = 27
temp = 27
method = modified trap
totiter = 2104
traniter = 2082
tranpoints = 1042
accept = 1042
rejected = 0
matrix size = 31
fillins = 0
solver = Normal
Avg thread counts: 4.7/6.7/6.7/3.8
Matrix Compiler1: 4.63 KB object code size  1.2/1.2/[0.6]
Matrix Compiler2: 3.73 KB object code size  0.8/0.6/[0.5]

