Circuit: *** SPICE deck for cell 5B_R2R_DAC_sim{sch} from library Werthan_5B_R2R_DAC

Fatal Error: No analysis request found.
