Circuit: *** SPICE deck for cell 5B_R2R_DAC_delay_sim{sch} from library Werthan_5B_R2R_DAC

.OP point found by inspection.

Date: Thu Sep 28 14:56:31 2023
Total elapsed time: 0.602 seconds.

tnom = 27
temp = 27
method = modified trap
totiter = 48084
traniter = 48084
tranpoints = 24043
accept = 24042
rejected = 1
matrix size = 13
fillins = 0
solver = Normal
Avg thread counts: 1.1/1.2/1.2/1.1
Matrix Compiler1: 568 bytes object code size  0.4/0.3/[0.3]
Matrix Compiler2: off  [0.2]/0.4/0.2

