Circuit: *** SPICE deck for cell ring_oscillator{sch} from library Werthan_DC_to_DC

