Circuit: *** SPICE deck for cell test_cell{sch} from library Werthan_tutorial_7

Instance "m:inv_1x@0:nmos@0": Length shorter than recommended for a level 3 MOSFET.
Instance "m:mux2_c_1@0:nmos@0": Length shorter than recommended for a level 3 MOSFET.
Instance "m:mux2_c_1@0:nmos@0": Width narrower than recommended for a level 3 MOSFET.
Instance "m:mux2_c_1@0:nmos@1": Length shorter than recommended for a level 3 MOSFET.
Instance "m:mux2_c_1@0:nmos@1": Width narrower than recommended for a level 3 MOSFET.
Instance "m:mux2_c_1@0:nmos@2": Length shorter than recommended for a level 3 MOSFET.
Instance "m:mux2_c_1@0:nmos@2": Width narrower than recommended for a level 3 MOSFET.
Instance "m:mux2_c_1@0:nmos@3": Length shorter than recommended for a level 3 MOSFET.
Instance "m:mux2_c_1@0:nmos@3": Width narrower than recommended for a level 3 MOSFET.
Instance "m:mux2_c_1@0:nmos@4": Length shorter than recommended for a level 3 MOSFET.
Instance "m:mux2_c_1@0:nmos@5": Length shorter than recommended for a level 3 MOSFET.
Instance "m:mux2_c_1@0:nmos@5": Width narrower than recommended for a level 3 MOSFET.
Instance "m:or2_1x@0:nmos@8": Length shorter than recommended for a level 3 MOSFET.
Instance "m:or2_1x@0:nmos@8": Width narrower than recommended for a level 3 MOSFET.
Instance "m:or2_1x@0:nmos@10": Length shorter than recommended for a level 3 MOSFET.
Instance "m:or2_1x@0:nmos@11": Length shorter than recommended for a level 3 MOSFET.
Instance "m:or2_1x@0:nmos@11": Width narrower than recommended for a level 3 MOSFET.
Instance "m:inv_1x@0:pmos@0": Length shorter than recommended for a level 3 MOSFET.
Instance "m:mux2_c_1@0:pmos@0": Length shorter than recommended for a level 3 MOSFET.
Instance "m:mux2_c_1@0:pmos@1": Length shorter than recommended for a level 3 MOSFET.
Instance "m:mux2_c_1@0:pmos@2": Length shorter than recommended for a level 3 MOSFET.
Instance "m:mux2_c_1@0:pmos@3": Length shorter than recommended for a level 3 MOSFET.
Instance "m:mux2_c_1@0:pmos@4": Length shorter than recommended for a level 3 MOSFET.
Instance "m:mux2_c_1@0:pmos@5": Length shorter than recommended for a level 3 MOSFET.
Instance "m:or2_1x@0:pmos@2": Length shorter than recommended for a level 3 MOSFET.
Instance "m:or2_1x@0:pmos@3": Length shorter than recommended for a level 3 MOSFET.
Instance "m:or2_1x@0:pmos@4": Length shorter than recommended for a level 3 MOSFET.
Direct Newton iteration for .op point succeeded.

Date: Wed Nov  8 11:25:10 2023
Total elapsed time: 0.248 seconds.

tnom = 27
temp = 27
method = modified trap
totiter = 2601
traniter = 2568
tranpoints = 1084
accept = 1069
rejected = 15
matrix size = 19
fillins = 2
solver = Normal
Avg thread counts: 4.3/6.4/6.4/3.3
Matrix Compiler1:      78 opcodes  0.6/[0.3]/0.4
Matrix Compiler2: 2.01 KB object code size  0.4/0.6/[0.3]

