Circuit: *** SPICE deck for cell q4{sch} from library HW7Q1

Direct Newton iteration for .op point succeeded.

Date: Mon Nov  6 20:31:47 2023
Total elapsed time: 0.171 seconds.

tnom = 27
temp = 27
method = modified trap
totiter = 2282
traniter = 2274
tranpoints = 1052
accept = 1052
rejected = 0
matrix size = 60
fillins = 0
solver = Normal
Avg thread counts: 4.5/6.6/6.6/3.6
Matrix Compiler1: 7.71 KB object code size  2.2/1.4/[0.9]
Matrix Compiler2: 7.17 KB object code size  1.1/1.2/[0.7]

