Circuit: *** SPICE deck for cell Vsph_test_sim{sch} from library HW7Q1

Direct Newton iteration for .op point succeeded.

Date: Mon Nov  6 20:07:32 2023
Total elapsed time: 0.369 seconds.

tnom = 27
temp = 27
method = modified trap
totiter = 18379
traniter = 18373
tranpoints = 6575
accept = 4536
rejected = 2039
matrix size = 30
fillins = 0
solver = Normal
Avg thread counts: 3.2/1.9/1.9/1.3
Matrix Compiler1:     252 opcodes  0.9/[0.5]/1.4
Matrix Compiler2: 3.69 KB object code size  0.4/0.4/[0.3]

